test/test_files/input_tests/raw_remote_voltage_group.raw
0,    100.00, 33, 0, 1, 60.00
GridDyn PSS/E RAW unsupported remote voltage group regression
Two active generators share IREG and must be rejected until grouped control is implemented.
1,'SLACK',230.0000,3,1,1,1,1.000000,0.000000,1.10000,0.90000,1.10000,0.90000
2,'REMOTE',230.0000,1,1,1,1,1.000000,0.000000,1.10000,0.90000,1.10000,0.90000
3,'GEN1',230.0000,2,1,1,1,0.980000,0.000000,1.10000,0.90000,1.10000,0.90000
4,'GEN2',230.0000,2,1,1,1,0.980000,0.000000,1.10000,0.90000,1.10000,0.90000
0 / END OF BUS DATA, BEGIN LOAD DATA
2,'1 ',1,1,1,20.000,5.000,0.000,0.000,0.000,0.000,1,1
0 / END OF LOAD DATA, BEGIN FIXED SHUNT DATA
0 / END OF FIXED SHUNT DATA, BEGIN GENERATOR DATA
1,'1 ',30.000,0.000,100.000,-100.000,1.00000,0,100.000,0.00000,0.10000,0.00000,0.00000,1.00000,1,100.0,100.000,0.000
3,'1 ',10.000,0.000,100.000,-100.000,1.04000,2,100.000,0.00000,0.10000,0.00000,0.00000,1.00000,1,50.0,100.000,0.000
4,'1 ',10.000,0.000,100.000,-100.000,1.04000,2,100.000,0.00000,0.10000,0.00000,0.00000,1.00000,1,50.0,100.000,0.000
0 / END OF GENERATOR DATA, BEGIN BRANCH DATA
1,2,'1 ',0.01000,0.10000,0.02000,100.00,100.00,100.00,0.00000,0.00000,0.00000,0.00000,1,1,1.0,1,1.0000
1,3,'1 ',0.01000,0.10000,0.02000,100.00,100.00,100.00,0.00000,0.00000,0.00000,0.00000,1,1,1.0,1,1.0000
1,4,'1 ',0.01000,0.10000,0.02000,100.00,100.00,100.00,0.00000,0.00000,0.00000,0.00000,1,1,1.0,1,1.0000
0 / END OF BRANCH DATA, BEGIN TRANSFORMER DATA
0 / END OF TRANSFORMER DATA, BEGIN AREA DATA
0 / END OF AREA DATA, BEGIN TWO-TERMINAL DC DATA
0 / END OF TWO-TERMINAL DC DATA, BEGIN VSC DC LINE DATA
0 / END OF VSC DC LINE DATA, BEGIN IMPEDANCE CORRECTION DATA
0 / END OF IMPEDANCE CORRECTION DATA, BEGIN MULTI-TERMINAL DC DATA
0 / END OF MULTI-TERMINAL DC DATA, BEGIN MULTI-SECTION LINE DATA
0 / END OF MULTI-SECTION LINE DATA, BEGIN ZONE DATA
0 / END OF ZONE DATA, BEGIN INTER-AREA TRANSFER DATA
0 / END OF INTER-AREA TRANSFER DATA, BEGIN OWNER DATA
0 / END OF OWNER DATA, BEGIN FACTS DEVICE DATA
0 / END OF FACTS DEVICE DATA, BEGIN SWITCHED SHUNT DATA
0 / END OF SWITCHED SHUNT DATA, BEGIN GNE DATA
0 / END OF GNE DATA
Q
